  
       XFOIL         Version 6.99
  
 Calculated polar for: NACA 2412                                       
  
 1 1 Reynolds number fixed          Mach number fixed         
  
 xtrf =   1.000 (top)        1.000 (bottom)  
 Mach =   0.000     Re =     3.129 e 6     Ncrit =   9.000
  
   alpha    CL        CD       CDp       CM     Top_Xtr  Bot_Xtr
  ------ -------- --------- --------- -------- -------- --------
  -2.000   0.9436   0.01595   0.01180  -0.2116   0.5144   0.4917
  -1.000   1.0298   0.01668   0.01224  -0.2064   0.4251   0.5559
   0.000   1.1200   0.01725   0.01245  -0.2019   0.3320   0.6012
   1.000   1.2111   0.01783   0.01258  -0.1974   0.2282   0.6363
   2.000   1.3025   0.01862   0.01288  -0.1931   0.1285   0.6622
   3.000   1.3943   0.01960   0.01357  -0.1890   0.0727   0.6844
   4.000   1.4842   0.02073   0.01454  -0.1847   0.0446   0.7030
   5.000   1.5711   0.02201   0.01574  -0.1798   0.0302   0.7170
   6.000   1.6540   0.02345   0.01717  -0.1744   0.0229   0.7274
   7.000   1.7318   0.02515   0.01889  -0.1682   0.0183   0.7364
   8.000   1.8036   0.02715   0.02094  -0.1612   0.0150   0.7441
   9.000   1.8680   0.02954   0.02341  -0.1532   0.0129   0.7505
  10.000   1.9248   0.03239   0.02637  -0.1444   0.0113   0.7554
  11.000   1.9721   0.03591   0.03001  -0.1346   0.0100   0.7605
  12.000   2.0121   0.04001   0.03428  -0.1245   0.0091   0.7636
  13.000   2.0399   0.04531   0.03977  -0.1138   0.0084   0.7672
  14.000   2.0588   0.05176   0.04644  -0.1036   0.0078   0.7699
  15.000   2.0584   0.06118   0.05612  -0.0945   0.0072   0.7717
  16.000   2.0506   0.07294   0.06820  -0.0889   0.0069   0.7738
  17.000   2.0265   0.08787   0.08347  -0.0869   0.0066   0.7763
  18.000   1.9856   0.10610   0.10206  -0.0892   0.0064   0.7777
  19.000   1.9334   0.12704   0.12339  -0.0965   0.0061   0.7786
  20.000   1.8697   0.15108   0.14784  -0.1096   0.0059   0.7793
  21.000   1.7999   0.17799   0.17519  -0.1291   0.0058   0.7801
  22.000   1.7312   0.20666   0.20429  -0.1534   0.0057   0.7810
  23.000   1.6569   0.23953   0.23759  -0.1842   0.0056   0.7818
  24.000   1.6086   0.26853   0.26692  -0.2127   0.0054   0.7828
  25.000   1.5873   0.29163   0.29022  -0.2356   0.0051   0.7840
