  
       XFOIL         Version 6.99
  
 Calculated polar for: NACA 4412                                       
  
 1 1 Reynolds number fixed          Mach number fixed         
  
 xtrf =   1.000 (top)        1.000 (bottom)  
 Mach =   0.000     Re =     3.129 e 6     Ncrit =   9.000
  
   alpha    CL        CD       CDp       CM     Top_Xtr  Bot_Xtr
  ------ -------- --------- --------- -------- -------- --------
  -6.000  -0.2018   0.00711   0.00229  -0.1030   0.7940   0.0266
  -4.000   0.0254   0.00645   0.00142  -0.1033   0.7033   0.0459
  -2.000   0.2526   0.00614   0.00099  -0.1038   0.6002   0.1013
   0.000   0.4796   0.00604   0.00095  -0.1044   0.5108   0.2324
   1.000   0.5930   0.00598   0.00106  -0.1048   0.4782   0.3502
   2.000   0.7048   0.00550   0.00129  -0.1052   0.4514   0.6769
   3.000   0.8155   0.00515   0.00158  -0.1048   0.4259   0.9962
   4.000   0.9281   0.00559   0.00185  -0.1051   0.3895   1.0000
   5.000   1.0347   0.00631   0.00229  -0.1043   0.3288   1.0000
   6.000   1.1362   0.00740   0.00299  -0.1028   0.2468   1.0000
   7.000   1.2299   0.00902   0.00408  -0.1000   0.1456   1.0000
   8.000   1.3204   0.01071   0.00535  -0.0968   0.0742   1.0000
   9.000   1.4101   0.01219   0.00662  -0.0935   0.0423   1.0000
  10.000   1.4957   0.01362   0.00797  -0.0896   0.0284   1.0000
  11.000   1.5678   0.01518   0.00952  -0.0833   0.0212   1.0000
  12.000   1.6340   0.01706   0.01145  -0.0768   0.0172   1.0000
  13.000   1.6923   0.01956   0.01402  -0.0701   0.0143   1.0000
  14.000   1.7426   0.02287   0.01742  -0.0636   0.0123   1.0000
  15.000   1.7826   0.02735   0.02205  -0.0575   0.0108   1.0000
  16.000   1.8110   0.03338   0.02824  -0.0523   0.0096   1.0000
  17.000   1.8298   0.04113   0.03620  -0.0485   0.0089   1.0000
  18.000   1.8353   0.05120   0.04650  -0.0464   0.0082   1.0000
  19.000   1.8212   0.06446   0.06005  -0.0460   0.0076   1.0000
  20.000   1.8035   0.07890   0.07477  -0.0474   0.0072   1.0000
  21.000   1.7718   0.09580   0.09196  -0.0506   0.0069   1.0000
  22.000   1.7291   0.11496   0.11144  -0.0562   0.0065   1.0000
  23.000   1.6782   0.13640   0.13322  -0.0652   0.0062   1.0000
  24.000   1.6421   0.15636   0.15349  -0.0761   0.0060   1.0000
  25.000   1.6037   0.17758   0.17503  -0.0901   0.0059   1.0000
