  
       XFOIL         Version 6.99
  
 Calculated polar for: NACA 2412                                       
  
 1 1 Reynolds number fixed          Mach number fixed         
  
 xtrf =   1.000 (top)        1.000 (bottom)  
 Mach =   0.000     Re =     3.129 e 6     Ncrit =   9.000
  
   alpha    CL        CD       CDp       CM     Top_Xtr  Bot_Xtr
  ------ -------- --------- --------- -------- -------- --------
  -2.000   0.8721   0.01714   0.01021  -0.2025   0.1109   0.0921
  -1.000   0.9742   0.01764   0.01065  -0.2006   0.1053   0.0983
   0.000   1.0766   0.01814   0.01111  -0.1988   0.1034   0.1032
   1.000   1.1775   0.01870   0.01167  -0.1967   0.1022   0.1109
   2.000   1.2865   0.01899   0.01263  -0.1968   0.1018   0.5121
   3.000   1.3847   0.01966   0.01348  -0.1943   0.1014   0.6189
   4.000   1.4794   0.02045   0.01438  -0.1912   0.1010   0.6737
   5.000   1.5718   0.02132   0.01529  -0.1877   0.0986   0.6979
   6.000   1.6608   0.02234   0.01636  -0.1838   0.0962   0.7153
   7.000   1.7471   0.02346   0.01751  -0.1794   0.0919   0.7285
   8.000   1.8173   0.02558   0.01941  -0.1725   0.0497   0.7386
   9.000   1.8778   0.02826   0.02200  -0.1641   0.0277   0.7467
  10.000   1.9362   0.03101   0.02477  -0.1559   0.0194   0.7532
  11.000   1.9884   0.03415   0.02798  -0.1471   0.0150   0.7587
  12.000   2.0331   0.03788   0.03183  -0.1377   0.0123   0.7625
  13.000   2.0674   0.04248   0.03657  -0.1278   0.0105   0.7658
  14.000   2.0930   0.04808   0.04236  -0.1179   0.0092   0.7695
  15.000   2.1048   0.05554   0.05004  -0.1085   0.0081   0.7712
  16.000   2.0999   0.06601   0.06078  -0.1011   0.0073   0.7732
  17.000   2.0832   0.07925   0.07434  -0.0971   0.0068   0.7771
  18.000   2.0431   0.09663   0.09209  -0.0972   0.0064   0.7781
  19.000   1.9786   0.11883   0.11471  -0.1028   0.0060   0.7790
  20.000   1.9002   0.14483   0.14118  -0.1153   0.0059   0.7797
  21.000   1.8091   0.17524   0.17210  -0.1356   0.0058   0.7804
  22.000   1.7241   0.20686   0.20417  -0.1609   0.0058   0.7811
  23.000   1.6911   0.22838   0.22595  -0.1798   0.0055   0.7824
  24.000   1.6809   0.24459   0.24233  -0.1949   0.0052   0.7842
  25.000   1.6745   0.25980   0.25767  -0.2098   0.0047   0.7857
