  
       XFOIL         Version 6.99
  
 Calculated polar for: NACA 4412                                       
  
 1 1 Reynolds number fixed          Mach number fixed         
  
 xtrf =   1.000 (top)        1.000 (bottom)  
 Mach =   0.000     Re =     3.129 e 6     Ncrit =   9.000
  
   alpha    CL        CD       CDp       CM     Top_Xtr  Bot_Xtr
  ------ -------- --------- --------- -------- -------- --------
  -3.000   0.1232   0.00749   0.00223  -0.1125   0.5814   0.0232
  -2.000   0.2351   0.00739   0.00187  -0.1120   0.5134   0.0266
  -1.000   0.3470   0.00742   0.00167  -0.1116   0.4498   0.0314
   0.000   0.4562   0.00775   0.00165  -0.1108   0.3552   0.0381
   1.000   0.5521   0.00948   0.00232  -0.1080   0.0992   0.0464
   2.000   0.6635   0.00969   0.00250  -0.1077   0.0943   0.0576
   3.000   0.7741   0.00997   0.00278  -0.1075   0.0929   0.0695
   4.000   0.8836   0.01036   0.00316  -0.1071   0.0918   0.0800
   5.000   0.9916   0.01083   0.00364  -0.1067   0.0913   0.0874
   6.000   1.0977   0.01136   0.00420  -0.1060   0.0910   0.0928
   7.000   1.2017   0.01193   0.00480  -0.1052   0.0909   0.0978
   8.000   1.3030   0.01256   0.00548  -0.1040   0.0909   0.1028
   9.000   1.4009   0.01328   0.00627  -0.1025   0.0910   0.1084
  10.000   1.4946   0.01299   0.00752  -0.1008   0.0911   1.0000
  11.000   1.5764   0.01417   0.00876  -0.0966   0.0907   1.0000
  12.000   1.6630   0.01497   0.00958  -0.0936   0.0892   1.0000
  13.000   1.7404   0.01627   0.01092  -0.0896   0.0871   1.0000
  14.000   1.8142   0.01783   0.01256  -0.0857   0.0851   1.0000
  15.000   1.8864   0.01959   0.01437  -0.0822   0.0810   1.0000
  16.000   1.8741   0.02740   0.02198  -0.0707   0.0319   1.0000
  17.000   1.8868   0.03478   0.02943  -0.0651   0.0204   1.0000
  18.000   1.8971   0.04347   0.03828  -0.0617   0.0152   1.0000
  19.000   1.8973   0.05415   0.04917  -0.0601   0.0124   1.0000
  20.000   1.8845   0.06716   0.06243  -0.0601   0.0106   1.0000
  21.000   1.8565   0.08282   0.07837  -0.0619   0.0093   1.0000
  22.000   1.8146   0.10107   0.09693  -0.0657   0.0083   1.0000
  23.000   1.7639   0.12143   0.11764  -0.0720   0.0076   1.0000
  24.000   1.7012   0.14489   0.14147  -0.0823   0.0072   1.0000
  25.000   1.6172   0.17402   0.17106  -0.0990   0.0070   1.0000
