  
       XFOIL         Version 6.99
  
 Calculated polar for: NACA 4312                                       
  
 1 1 Reynolds number fixed          Mach number fixed         
  
 xtrf =   1.000 (top)        1.000 (bottom)  
 Mach =   0.000     Re =     3.129 e 6     Ncrit =   9.000
  
   alpha    CL        CD       CDp       CM     Top_Xtr  Bot_Xtr
  ------ -------- --------- --------- -------- -------- --------
   0.000   0.4430   0.00694   0.00114  -0.0862   0.3877   0.1380
   1.000   0.5565   0.00687   0.00124  -0.0865   0.3634   0.2410
   2.000   0.6660   0.00593   0.00145  -0.0867   0.3473   0.7446
   3.000   0.7763   0.00568   0.00173  -0.0861   0.3352   0.9926
   4.000   0.8975   0.00596   0.00195  -0.0883   0.3260   1.0000
   5.000   1.0073   0.00631   0.00225  -0.0880   0.3134   1.0000
   6.000   1.1171   0.00673   0.00259  -0.0879   0.2915   1.0000
   7.000   1.2229   0.00744   0.00312  -0.0873   0.2527   1.0000
   8.000   1.3211   0.00870   0.00404  -0.0855   0.1869   1.0000
   9.000   1.4062   0.01087   0.00565  -0.0818   0.0935   1.0000
  10.000   1.4907   0.01278   0.00727  -0.0780   0.0466   1.0000
  11.000   1.5718   0.01450   0.00889  -0.0738   0.0282   1.0000
  12.000   1.6380   0.01631   0.01069  -0.0671   0.0203   1.0000
  13.000   1.6964   0.01860   0.01304  -0.0601   0.0156   1.0000
  14.000   1.7448   0.02178   0.01632  -0.0533   0.0126   1.0000
  15.000   1.7857   0.02603   0.02071  -0.0475   0.0111   1.0000
  16.000   1.8105   0.03236   0.02722  -0.0426   0.0097   1.0000
  17.000   1.8197   0.04129   0.03638  -0.0397   0.0088   1.0000
  18.000   1.7994   0.05498   0.05037  -0.0393   0.0077   1.0000
  19.000   1.7708   0.07090   0.06661  -0.0412   0.0075   1.0000
  20.000   1.7254   0.08980   0.08585  -0.0451   0.0072   1.0000
  21.000   1.6748   0.11004   0.10641  -0.0507   0.0069   1.0000
  22.000   1.6317   0.12973   0.12638  -0.0578   0.0065   1.0000
  23.000   1.5875   0.15050   0.14744  -0.0673   0.0059   1.0000
  24.000   1.5638   0.16836   0.16555  -0.0772   0.0057   1.0000
  25.000   1.5426   0.18655   0.18399  -0.0889   0.0055   1.0000
